/*--------------------------------*- C++ -*----------------------------------*\
  =========                 |
  \\      /  F ield         | OpenFOAM: The Open Source CFD Toolbox
   \\    /   O peration     | Website:  https://openfoam.org
    \\  /    A nd           | Version:  9
     \\/     M anipulation  |
\*---------------------------------------------------------------------------*/
FoamFile
{
    format      ascii;
    class       extendedFeatureEdgeMesh;
    location    "constant/extendedFeatureEdgeMesh";
    object      background_scaled.extendedFeatureEdgeMesh;
}
// * * * * * * * * * * * * * * * * * * * * * * * * * * * * * * * * * * * * * //

// points

6272
(
(1e-06 0.000601 1e-06)
(1e-06 0.000601 2.4e-05)
(1e-06 0.000631 1e-06)
(1e-06 0.000631 2.4e-05)
(1e-06 0.001001 1e-06)
(1e-06 0.001001 2.4e-05)
(0.002881 0.001001 1e-06)
(0.002881 0.001001 2.4e-05)
(0.002881 1e-06 1e-06)
(0.002881 1e-06 2.4e-05)
(1e-06 1e-06 1e-06)
(1e-06 1e-06 2.4e-05)
(1e-06 0.000371 1e-06)
(1e-06 0.000371 2.4e-05)
(1e-06 0.000401 1e-06)
(1e-06 0.000401 2.4e-05)
(0.00112696 0.000645244 1e-06)
(0.00112696 0.000645244 2.4e-05)
(0.00112696 0.000675244 1e-06)
(0.00112696 0.000675244 2.4e-05)
(0.00112696 0.000326756 1e-06)
(0.00112696 0.000326756 2.4e-05)
(0.00112696 0.000356756 1e-06)
(0.00112696 0.000356756 2.4e-05)
(2.44018e-06 0.000601471 1e-06)
(2.44018e-06 0.000601471 2.4e-05)
(3.88036e-06 0.000601943 1e-06)
(3.88036e-06 0.000601943 2.4e-05)
(5.32054e-06 0.000602414 1e-06)
(5.32054e-06 0.000602414 2.4e-05)
(6.76072e-06 0.000602885 1e-06)
(6.76072e-06 0.000602885 2.4e-05)
(8.2009e-06 0.000603356 1e-06)
(8.2009e-06 0.000603356 2.4e-05)
(9.64108e-06 0.000603826 1e-06)
(9.64108e-06 0.000603826 2.4e-05)
(1.10813e-05 0.000604297 1e-06)
(1.10813e-05 0.000604297 2.4e-05)
(1.25214e-05 0.000604767 1e-06)
(1.25214e-05 0.000604767 2.4e-05)
(1.39616e-05 0.000605237 1e-06)
(1.39616e-05 0.000605237 2.4e-05)
(1.54018e-05 0.000605706 1e-06)
(1.54018e-05 0.000605706 2.4e-05)
(1.6842e-05 0.000606175 1e-06)
(1.6842e-05 0.000606175 2.4e-05)
(1.82822e-05 0.000606644 1e-06)
(1.82822e-05 0.000606644 2.4e-05)
(1.97223e-05 0.000607112 1e-06)
(1.97223e-05 0.000607112 2.4e-05)
(2.11625e-05 0.000607579 1e-06)
(2.11625e-05 0.000607579 2.4e-05)
(2.26027e-05 0.000608046 1e-06)
(2.26027e-05 0.000608046 2.4e-05)
(2.40429e-05 0.000608512 1e-06)
(2.40429e-05 0.000608512 2.4e-05)
(2.54831e-05 0.000608978 1e-06)
(2.54831e-05 0.000608978 2.4e-05)
(2.69232e-05 0.000609443 1e-06)
(2.69232e-05 0.000609443 2.4e-05)
(2.83634e-05 0.000609907 1e-06)
(2.83634e-05 0.000609907 2.4e-05)
(2.98036e-05 0.00061037 1e-06)
(2.98036e-05 0.00061037 2.4e-05)
(3.12438e-05 0.000610833 1e-06)
(3.12438e-05 0.000610833 2.4e-05)
(3.2684e-05 0.000611294 1e-06)
(3.2684e-05 0.000611294 2.4e-05)
(3.41241e-05 0.000611755 1e-06)
(3.41241e-05 0.000611755 2.4e-05)
(3.55643e-05 0.000612215 1e-06)
(3.55643e-05 0.000612215 2.4e-05)
(3.70045e-05 0.000612674 1e-06)
(3.70045e-05 0.000612674 2.4e-05)
(3.84447e-05 0.000613131 1e-06)
(3.84447e-05 0.000613131 2.4e-05)
(3.98849e-05 0.000613588 1e-06)
(3.98849e-05 0.000613588 2.4e-05)
(4.1325e-05 0.000614044 1e-06)
(4.1325e-05 0.000614044 2.4e-05)
(4.27652e-05 0.000614498 1e-06)
(4.27652e-05 0.000614498 2.4e-05)
(4.42054e-05 0.000614951 1e-06)
(4.42054e-05 0.000614951 2.4e-05)
(4.56456e-05 0.000615403 1e-06)
(4.56456e-05 0.000615403 2.4e-05)
(4.70858e-05 0.000615854 1e-06)
(4.70858e-05 0.000615854 2.4e-05)
(4.85259e-05 0.000616303 1e-06)
(4.85259e-05 0.000616303 2.4e-05)
(4.99661e-05 0.000616751 1e-06)
(4.99661e-05 0.000616751 2.4e-05)
(5.14063e-05 0.000617198 1e-06)
(5.14063e-05 0.000617198 2.4e-05)
(5.28465e-05 0.000617643 1e-06)
(5.28465e-05 0.000617643 2.4e-05)
(5.42867e-05 0.000618087 1e-06)
(5.42867e-05 0.000618087 2.4e-05)
(5.57268e-05 0.000618529 1e-06)
(5.57268e-05 0.000618529 2.4e-05)
(5.7167e-05 0.000618969 1e-06)
(5.7167e-05 0.000618969 2.4e-05)
(5.86072e-05 0.000619408 1e-06)
(5.86072e-05 0.000619408 2.4e-05)
(6.00474e-05 0.000619846 1e-06)
(6.00474e-05 0.000619846 2.4e-05)
(6.14876e-05 0.000620281 1e-06)
(6.14876e-05 0.000620281 2.4e-05)
(6.29277e-05 0.000620715 1e-06)
(6.29277e-05 0.000620715 2.4e-05)
(6.43679e-05 0.000621148 1e-06)
(6.43679e-05 0.000621148 2.4e-05)
(6.58081e-05 0.000621578 1e-06)
(6.58081e-05 0.000621578 2.4e-05)
(6.72483e-05 0.000622007 1e-06)
(6.72483e-05 0.000622007 2.4e-05)
(6.86885e-05 0.000622433 1e-06)
(6.86885e-05 0.000622433 2.4e-05)
(7.01286e-05 0.000622858 1e-06)
(7.01286e-05 0.000622858 2.4e-05)
(7.15688e-05 0.000623281 1e-06)
(7.15688e-05 0.000623281 2.4e-05)
(7.3009e-05 0.000623702 1e-06)
(7.3009e-05 0.000623702 2.4e-05)
(7.44492e-05 0.000624121 1e-06)
(7.44492e-05 0.000624121 2.4e-05)
(7.58894e-05 0.000624538 1e-06)
(7.58894e-05 0.000624538 2.4e-05)
(7.73295e-05 0.000624953 1e-06)
(7.73295e-05 0.000624953 2.4e-05)
(7.87697e-05 0.000625365 1e-06)
(7.87697e-05 0.000625365 2.4e-05)
(8.02099e-05 0.000625776 1e-06)
(8.02099e-05 0.000625776 2.4e-05)
(8.16501e-05 0.000626184 1e-06)
(8.16501e-05 0.000626184 2.4e-05)
(8.30903e-05 0.00062659 1e-06)
(8.30903e-05 0.00062659 2.4e-05)
(8.45304e-05 0.000626994 1e-06)
(8.45304e-05 0.000626994 2.4e-05)
(8.59706e-05 0.000627395 1e-06)
(8.59706e-05 0.000627395 2.4e-05)
(8.74108e-05 0.000627794 1e-06)
(8.74108e-05 0.000627794 2.4e-05)
(8.8851e-05 0.000628191 1e-06)
(8.8851e-05 0.000628191 2.4e-05)
(9.02912e-05 0.000628585 1e-06)
(9.02912e-05 0.000628585 2.4e-05)
(9.17313e-05 0.000628977 1e-06)
(9.17313e-05 0.000628977 2.4e-05)
(9.31715e-05 0.000629367 1e-06)
(9.31715e-05 0.000629367 2.4e-05)
(9.46117e-05 0.000629753 1e-06)
(9.46117e-05 0.000629753 2.4e-05)
(9.60519e-05 0.000630138 1e-06)
(9.60519e-05 0.000630138 2.4e-05)
(9.74921e-05 0.000630519 1e-06)
(9.74921e-05 0.000630519 2.4e-05)
(9.89322e-05 0.000630898 1e-06)
(9.89322e-05 0.000630898 2.4e-05)
(0.000100372 0.000631275 1e-06)
(0.000100372 0.000631275 2.4e-05)
(0.000101813 0.000631649 1e-06)
(0.000101813 0.000631649 2.4e-05)
(0.000103253 0.00063202 1e-06)
(0.000103253 0.00063202 2.4e-05)
(0.000104693 0.000632388 1e-06)
(0.000104693 0.000632388 2.4e-05)
(0.000106133 0.000632753 1e-06)
(0.000106133 0.000632753 2.4e-05)
(0.000107573 0.000633116 1e-06)
(0.000107573 0.000633116 2.4e-05)
(0.000109013 0.000633476 1e-06)
(0.000109013 0.000633476 2.4e-05)
(0.000110454 0.000633833 1e-06)
(0.000110454 0.000633833 2.4e-05)
(0.000111894 0.000634187 1e-06)
(0.000111894 0.000634187 2.4e-05)
(0.000113334 0.000634538 1e-06)
(0.000113334 0.000634538 2.4e-05)
(0.000114774 0.000634886 1e-06)
(0.000114774 0.000634886 2.4e-05)
(0.000116214 0.000635231 1e-06)
(0.000116214 0.000635231 2.4e-05)
(0.000117655 0.000635573 1e-06)
(0.000117655 0.000635573 2.4e-05)
(0.000119095 0.000635912 1e-06)
(0.000119095 0.000635912 2.4e-05)
(0.000120535 0.000636248 1e-06)
(0.000120535 0.000636248 2.4e-05)
(0.000121975 0.00063658 1e-06)
(0.000121975 0.00063658 2.4e-05)
(0.000123415 0.00063691 1e-06)
(0.000123415 0.00063691 2.4e-05)
(0.000124855 0.000637236 1e-06)
(0.000124855 0.000637236 2.4e-05)
(0.000126296 0.000637559 1e-06)
(0.000126296 0.000637559 2.4e-05)
(0.000127736 0.000637879 1e-06)
(0.000127736 0.000637879 2.4e-05)
(0.000129176 0.000638196 1e-06)
(0.000129176 0.000638196 2.4e-05)
(0.000130616 0.000638509 1e-06)
(0.000130616 0.000638509 2.4e-05)
(0.000132056 0.000638819 1e-06)
(0.000132056 0.000638819 2.4e-05)
(0.000133497 0.000639126 1e-06)
(0.000133497 0.000639126 2.4e-05)
(0.000134937 0.000639429 1e-06)
(0.000134937 0.000639429 2.4e-05)
(0.000136377 0.000639729 1e-06)
(0.000136377 0.000639729 2.4e-05)
(0.000137817 0.000640025 1e-06)
(0.000137817 0.000640025 2.4e-05)
(0.000139257 0.000640318 1e-06)
(0.000139257 0.000640318 2.4e-05)
(0.000140697 0.000640607 1e-06)
(0.000140697 0.000640607 2.4e-05)
(0.000142138 0.000640893 1e-06)
(0.000142138 0.000640893 2.4e-05)
(0.000143578 0.000641176 1e-06)
(0.000143578 0.000641176 2.4e-05)
(0.000145018 0.000641454 1e-06)
(0.000145018 0.000641454 2.4e-05)
(0.000146458 0.00064173 1e-06)
(0.000146458 0.00064173 2.4e-05)
(0.000147898 0.000642001 1e-06)
(0.000147898 0.000642001 2.4e-05)
(0.000149339 0.000642269 1e-06)
(0.000149339 0.000642269 2.4e-05)
(0.000150779 0.000642533 1e-06)
(0.000150779 0.000642533 2.4e-05)
(0.000152219 0.000642794 1e-06)
(0.000152219 0.000642794 2.4e-05)
(0.000153659 0.000643051 1e-06)
(0.000153659 0.000643051 2.4e-05)
(0.000155099 0.000643304 1e-06)
(0.000155099 0.000643304 2.4e-05)
(0.000156539 0.000643553 1e-06)
(0.000156539 0.000643553 2.4e-05)
(0.00015798 0.000643799 1e-06)
(0.00015798 0.000643799 2.4e-05)
(0.00015942 0.00064404 1e-06)
(0.00015942 0.00064404 2.4e-05)
(0.00016086 0.000644278 1e-06)
(0.00016086 0.000644278 2.4e-05)
(0.0001623 0.000644512 1e-06)
(0.0001623 0.000644512 2.4e-05)
(0.00016374 0.000644743 1e-06)
(0.00016374 0.000644743 2.4e-05)
(0.000165181 0.000644969 1e-06)
(0.000165181 0.000644969 2.4e-05)
(0.000166621 0.000645191 1e-06)
(0.000166621 0.000645191 2.4e-05)
(0.000168061 0.00064541 1e-06)
(0.000168061 0.00064541 2.4e-05)
(0.000169501 0.000645625 1e-06)
(0.000169501 0.000645625 2.4e-05)
(0.000170941 0.000645835 1e-06)
(0.000170941 0.000645835 2.4e-05)
(0.000172381 0.000646042 1e-06)
(0.000172381 0.000646042 2.4e-05)
(0.000173822 0.000646244 1e-06)
(0.000173822 0.000646244 2.4e-05)
(0.000175262 0.000646443 1e-06)
(0.000175262 0.000646443 2.4e-05)
(0.000176702 0.000646638 1e-06)
(0.000176702 0.000646638 2.4e-05)
(0.000178142 0.000646828 1e-06)
(0.000178142 0.000646828 2.4e-05)
(0.000179582 0.000647014 1e-06)
(0.000179582 0.000647014 2.4e-05)
(0.000181022 0.000647197 1e-06)
(0.000181022 0.000647197 2.4e-05)
(0.000182463 0.000647375 1e-06)
(0.000182463 0.000647375 2.4e-05)
(0.000183903 0.000647549 1e-06)
(0.000183903 0.000647549 2.4e-05)
(0.000185343 0.000647719 1e-06)
(0.000185343 0.000647719 2.4e-05)
(0.000186783 0.000647885 1e-06)
(0.000186783 0.000647885 2.4e-05)
(0.000188223 0.000648047 1e-06)
(0.000188223 0.000648047 2.4e-05)
(0.000189664 0.000648204 1e-06)
(0.000189664 0.000648204 2.4e-05)
(0.000191104 0.000648357 1e-06)
(0.000191104 0.000648357 2.4e-05)
(0.000192544 0.000648507 1e-06)
(0.000192544 0.000648507 2.4e-05)
(0.000193984 0.000648651 1e-06)
(0.000193984 0.000648651 2.4e-05)
(0.000195424 0.000648792 1e-06)
(0.000195424 0.000648792 2.4e-05)
(0.000196864 0.000648928 1e-06)
(0.000196864 0.000648928 2.4e-05)
(0.000198305 0.00064906 1e-06)
(0.000198305 0.00064906 2.4e-05)
(0.000199745 0.000649188 1e-06)
(0.000199745 0.000649188 2.4e-05)
(0.000201185 0.000649312 1e-06)
(0.000201185 0.000649312 2.4e-05)
(0.000202625 0.000649431 1e-06)
(0.000202625 0.000649431 2.4e-05)
(0.000204065 0.000649546 1e-06)
(0.000204065 0.000649546 2.4e-05)
(0.000205506 0.000649657 1e-06)
(0.000205506 0.000649657 2.4e-05)
(0.000206946 0.000649763 1e-06)
(0.000206946 0.000649763 2.4e-05)
(0.000208386 0.000649865 1e-06)
(0.000208386 0.000649865 2.4e-05)
(0.000209826 0.000649963 1e-06)
(0.000209826 0.000649963 2.4e-05)
(0.000211266 0.000650056 1e-06)
(0.000211266 0.000650056 2.4e-05)
(0.000212706 0.000650145 1e-06)
(0.000212706 0.000650145 2.4e-05)
(0.000214147 0.00065023 1e-06)
(0.000214147 0.00065023 2.4e-05)
(0.000215587 0.00065031 1e-06)
(0.000215587 0.00065031 2.4e-05)
(0.000217027 0.000650386 1e-06)
(0.000217027 0.000650386 2.4e-05)
(0.000218467 0.000650457 1e-06)
(0.000218467 0.000650457 2.4e-05)
(0.000219907 0.000650524 1e-06)
(0.000219907 0.000650524 2.4e-05)
(0.000221348 0.000650587 1e-06)
(0.000221348 0.000650587 2.4e-05)
(0.000222788 0.000650645 1e-06)
(0.000222788 0.000650645 2.4e-05)
(0.000224228 0.000650699 1e-06)
(0.000224228 0.000650699 2.4e-05)
(0.000225668 0.000650748 1e-06)
(0.000225668 0.000650748 2.4e-05)
(0.000227108 0.000650793 1e-06)
(0.000227108 0.000650793 2.4e-05)
(0.000228548 0.000650834 1e-06)
(0.000228548 0.000650834 2.4e-05)
(0.000229989 0.00065087 1e-06)
(0.000229989 0.00065087 2.4e-05)
(0.000231429 0.000650902 1e-06)
(0.000231429 0.000650902 2.4e-05)
(0.000232869 0.000650929 1e-06)
(0.000232869 0.000650929 2.4e-05)
(0.000234309 0.000650952 1e-06)
(0.000234309 0.000650952 2.4e-05)
(0.000235749 0.00065097 1e-06)
(0.000235749 0.00065097 2.4e-05)
(0.00023719 0.000650984 1e-06)
(0.00023719 0.000650984 2.4e-05)
(0.00023863 0.000650994 1e-06)
(0.00023863 0.000650994 2.4e-05)
(0.00024007 0.000650999 1e-06)
(0.00024007 0.000650999 2.4e-05)
(0.00024151 0.000651 1e-06)
(0.00024151 0.000651 2.4e-05)
(0.00024295 0.000650996 1e-06)
(0.00024295 0.000650996 2.4e-05)
(0.00024439 0.000650988 1e-06)
(0.00024439 0.000650988 2.4e-05)
(0.000245831 0.000650975 1e-06)
(0.000245831 0.000650975 2.4e-05)
(0.000247271 0.000650958 1e-06)
(0.000247271 0.000650958 2.4e-05)
(0.000248711 0.000650936 1e-06)
(0.000248711 0.000650936 2.4e-05)
(0.000250151 0.00065091 1e-06)
(0.000250151 0.00065091 2.4e-05)
(0.000251591 0.00065088 1e-06)
(0.000251591 0.00065088 2.4e-05)
(0.000253031 0.000650845 1e-06)
(0.000253031 0.000650845 2.4e-05)
(0.000254472 0.000650806 1e-06)
(0.000254472 0.000650806 2.4e-05)
(0.000255912 0.000650762 1e-06)
(0.000255912 0.000650762 2.4e-05)
(0.000257352 0.000650714 1e-06)
(0.000257352 0.000650714 2.4e-05)
(0.000258792 0.000650661 1e-06)
(0.000258792 0.000650661 2.4e-05)
(0.000260232 0.000650604 1e-06)
(0.000260232 0.000650604 2.4e-05)
(0.000261673 0.000650543 1e-06)
(0.000261673 0.000650543 2.4e-05)
(0.000263113 0.000650477 1e-06)
(0.000263113 0.000650477 2.4e-05)
(0.000264553 0.000650407 1e-06)
(0.000264553 0.000650407 2.4e-05)
(0.000265993 0.000650333 1e-06)
(0.000265993 0.000650333 2.4e-05)
(0.000267433 0.000650254 1e-06)
(0.000267433 0.000650254 2.4e-05)
(0.000268873 0.00065017 1e-06)
(0.000268873 0.00065017 2.4e-05)
(0.000270314 0.000650083 1e-06)
(0.000270314 0.000650083 2.4e-05)
(0.000271754 0.000649991 1e-06)
(0.000271754 0.000649991 2.4e-05)
(0.000273194 0.000649894 1e-06)
(0.000273194 0.000649894 2.4e-05)
(0.000274634 0.000649793 1e-06)
(0.000274634 0.000649793 2.4e-05)
(0.000276074 0.000649688 1e-06)
(0.000276074 0.000649688 2.4e-05)
(0.000277515 0.000649579 1e-06)
(0.000277515 0.000649579 2.4e-05)
(0.000278955 0.000649465 1e-06)
(0.000278955 0.000649465 2.4e-05)
(0.000280395 0.000649347 1e-06)
(0.000280395 0.000649347 2.4e-05)
(0.000281835 0.000649225 1e-06)
(0.000281835 0.000649225 2.4e-05)
(0.000283275 0.000649098 1e-06)
(0.000283275 0.000649098 2.4e-05)
(0.000284715 0.000648967 1e-06)
(0.000284715 0.000648967 2.4e-05)
(0.000286156 0.000648832 1e-06)
(0.000286156 0.000648832 2.4e-05)
(0.000287596 0.000648693 1e-06)
(0.000287596 0.000648693 2.4e-05)
(0.000289036 0.000648549 1e-06)
(0.000289036 0.000648549 2.4e-05)
(0.000290476 0.000648401 1e-06)
(0.000290476 0.000648401 2.4e-05)
(0.000291916 0.000648249 1e-06)
(0.000291916 0.000648249 2.4e-05)
(0.000293357 0.000648093 1e-06)
(0.000293357 0.000648093 2.4e-05)
(0.000294797 0.000647933 1e-06)
(0.000294797 0.000647933 2.4e-05)
(0.000296237 0.000647768 1e-06)
(0.000296237 0.000647768 2.4e-05)
(0.000297677 0.000647599 1e-06)
(0.000297677 0.000647599 2.4e-05)
(0.000299117 0.000647426 1e-06)
(0.000299117 0.000647426 2.4e-05)
(0.000300557 0.000647249 1e-06)
(0.000300557 0.000647249 2.4e-05)
(0.000301998 0.000647068 1e-06)
(0.000301998 0.000647068 2.4e-05)
(0.000303438 0.000646883 1e-06)
(0.000303438 0.000646883 2.4e-05)
(0.000304878 0.000646694 1e-06)
(0.000304878 0.000646694 2.4e-05)
(0.000306318 0.0006465 1e-06)
(0.000306318 0.0006465 2.4e-05)
(0.000307758 0.000646303 1e-06)
(0.000307758 0.000646303 2.4e-05)
(0.000309199 0.000646101 1e-06)
(0.000309199 0.000646101 2.4e-05)
(0.000310639 0.000645896 1e-06)
(0.000310639 0.000645896 2.4e-05)
(0.000312079 0.000645686 1e-06)
(0.000312079 0.000645686 2.4e-05)
(0.000313519 0.000645473 1e-06)
(0.000313519 0.000645473 2.4e-05)
(0.000314959 0.000645256 1e-06)
(0.000314959 0.000645256 2.4e-05)
(0.000316399 0.000645034 1e-06)
(0.000316399 0.000645034 2.4e-05)
(0.00031784 0.000644809 1e-06)
(0.00031784 0.000644809 2.4e-05)
(0.00031928 0.00064458 1e-06)
(0.00031928 0.00064458 2.4e-05)
(0.00032072 0.000644347 1e-06)
(0.00032072 0.000644347 2.4e-05)
(0.00032216 0.00064411 1e-06)
(0.00032216 0.00064411 2.4e-05)
(0.0003236 0.00064387 1e-06)
(0.0003236 0.00064387 2.4e-05)
(0.000325041 0.000643625 1e-06)
(0.000325041 0.000643625 2.4e-05)
(0.000326481 0.000643377 1e-06)
(0.000326481 0.000643377 2.4e-05)
(0.000327921 0.000643125 1e-06)
(0.000327921 0.000643125 2.4e-05)
(0.000329361 0.000642869 1e-06)
(0.000329361 0.000642869 2.4e-05)
(0.000330801 0.00064261 1e-06)
(0.000330801 0.00064261 2.4e-05)
(0.000332241 0.000642346 1e-06)
(0.000332241 0.000642346 2.4e-05)
(0.000333682 0.00064208 1e-06)
(0.000333682 0.00064208 2.4e-05)
(0.000335122 0.000641809 1e-06)
(0.000335122 0.000641809 2.4e-05)
(0.000336562 0.000641535 1e-06)
(0.000336562 0.000641535 2.4e-05)
(0.000338002 0.000641257 1e-06)
(0.000338002 0.000641257 2.4e-05)
(0.000339442 0.000640976 1e-06)
(0.000339442 0.000640976 2.4e-05)
(0.000340882 0.000640691 1e-06)
(0.000340882 0.000640691 2.4e-05)
(0.000342323 0.000640403 1e-06)
(0.000342323 0.000640403 2.4e-05)
(0.000343763 0.000640111 1e-06)
(0.000343763 0.000640111 2.4e-05)
(0.000345203 0.000639815 1e-06)
(0.000345203 0.000639815 2.4e-05)
(0.000346643 0.000639517 1e-06)
(0.000346643 0.000639517 2.4e-05)
(0.000348083 0.000639214 1e-06)
(0.000348083 0.000639214 2.4e-05)
(0.000349524 0.000638909 1e-06)
(0.000349524 0.000638909 2.4e-05)
(0.000350964 0.0006386 1e-06)
(0.000350964 0.0006386 2.4e-05)
(0.000352404 0.000638287 1e-06)
(0.000352404 0.000638287 2.4e-05)
(0.000353844 0.000637972 1e-06)
(0.000353844 0.000637972 2.4e-05)
(0.000355284 0.000637653 1e-06)
(0.000355284 0.000637653 2.4e-05)
(0.000356724 0.000637331 1e-06)
(0.000356724 0.000637331 2.4e-05)
(0.000358165 0.000637005 1e-06)
(0.000358165 0.000637005 2.4e-05)
(0.000359605 0.000636677 1e-06)
(0.000359605 0.000636677 2.4e-05)
(0.000361045 0.000636345 1e-06)
(0.000361045 0.000636345 2.4e-05)
(0.000362485 0.00063601 1e-06)
(0.000362485 0.00063601 2.4e-05)
(0.000363925 0.000635672 1e-06)
(0.000363925 0.000635672 2.4e-05)
(0.000365366 0.000635331 1e-06)
(0.000365366 0.000635331 2.4e-05)
(0.000366806 0.000634987 1e-06)
(0.000366806 0.000634987 2.4e-05)
(0.000368246 0.00063464 1e-06)
(0.000368246 0.00063464 2.4e-05)
(0.000369686 0.000634289 1e-06)
(0.000369686 0.000634289 2.4e-05)
(0.000371126 0.000633936 1e-06)
(0.000371126 0.000633936 2.4e-05)
(0.000372566 0.00063358 1e-06)
(0.000372566 0.00063358 2.4e-05)
(0.000374007 0.000633221 1e-06)
(0.000374007 0.000633221 2.4e-05)
(0.000375447 0.000632859 1e-06)
(0.000375447 0.000632859 2.4e-05)
(0.000376887 0.000632495 1e-06)
(0.000376887 0.000632495 2.4e-05)
(0.000378327 0.000632127 1e-06)
(0.000378327 0.000632127 2.4e-05)
(0.000379767 0.000631757 1e-06)
(0.000379767 0.000631757 2.4e-05)
(0.000381208 0.000631384 1e-06)
(0.000381208 0.000631384 2.4e-05)
(0.000382648 0.000631009 1e-06)
(0.000382648 0.000631009 2.4e-05)
(0.000384088 0.00063063 1e-06)
(0.000384088 0.00063063 2.4e-05)
(0.000385528 0.000630249 1e-06)
(0.000385528 0.000630249 2.4e-05)
(0.000386968 0.000629866 1e-06)
(0.000386968 0.000629866 2.4e-05)
(0.000388408 0.00062948 1e-06)
(0.000388408 0.00062948 2.4e-05)
(0.000389849 0.000629091 1e-06)
(0.000389849 0.000629091 2.4e-05)
(0.000391289 0.0006287 1e-06)
(0.000391289 0.0006287 2.4e-05)
(0.000392729 0.000628306 1e-06)
(0.000392729 0.000628306 2.4e-05)
(0.000394169 0.00062791 1e-06)
(0.000394169 0.00062791 2.4e-05)
(0.000395609 0.000627512 1e-06)
(0.000395609 0.000627512 2.4e-05)
(0.00039705 0.000627111 1e-06)
(0.00039705 0.000627111 2.4e-05)
(0.00039849 0.000626708 1e-06)
(0.00039849 0.000626708 2.4e-05)
(0.00039993 0.000626303 1e-06)
(0.00039993 0.000626303 2.4e-05)
(0.00040137 0.000625895 1e-06)
(0.00040137 0.000625895 2.4e-05)
(0.00040281 0.000625485 1e-06)
(0.00040281 0.000625485 2.4e-05)
(0.00040425 0.000625073 1e-06)
(0.00040425 0.000625073 2.4e-05)
(0.000405691 0.000624659 1e-06)
(0.000405691 0.000624659 2.4e-05)
(0.000407131 0.000624243 1e-06)
(0.000407131 0.000624243 2.4e-05)
(0.000408571 0.000623825 1e-06)
(0.000408571 0.000623825 2.4e-05)
(0.000410011 0.000623404 1e-06)
(0.000410011 0.000623404 2.4e-05)
(0.000411451 0.000622982 1e-06)
(0.000411451 0.000622982 2.4e-05)
(0.000412892 0.000622558 1e-06)
(0.000412892 0.000622558 2.4e-05)
(0.000414332 0.000622131 1e-06)
(0.000414332 0.000622131 2.4e-05)
(0.000415772 0.000621703 1e-06)
(0.000415772 0.000621703 2.4e-05)
(0.000417212 0.000621273 1e-06)
(0.000417212 0.000621273 2.4e-05)
(0.000418652 0.000620842 1e-06)
(0.000418652 0.000620842 2.4e-05)
(0.000420092 0.000620408 1e-06)
(0.000420092 0.000620408 2.4e-05)
(0.000421533 0.000619973 1e-06)
(0.000421533 0.000619973 2.4e-05)
(0.000422973 0.000619536 1e-06)
(0.000422973 0.000619536 2.4e-05)
(0.000424413 0.000619098 1e-06)
(0.000424413 0.000619098 2.4e-05)
(0.000425853 0.000618658 1e-06)
(0.000425853 0.000618658 2.4e-05)
(0.000427293 0.000618216 1e-06)
(0.000427293 0.000618216 2.4e-05)
(0.000428733 0.000617773 1e-06)
(0.000428733 0.000617773 2.4e-05)
(0.000430174 0.000617328 1e-06)
(0.000430174 0.000617328 2.4e-05)
(0.000431614 0.000616882 1e-06)
(0.000431614 0.000616882 2.4e-05)
(0.000433054 0.000616434 1e-06)
(0.000433054 0.000616434 2.4e-05)
(0.000434494 0.000615985 1e-06)
(0.000434494 0.000615985 2.4e-05)
(0.000435934 0.000615535 1e-06)
(0.000435934 0.000615535 2.4e-05)
(0.000437375 0.000615083 1e-06)
(0.000437375 0.000615083 2.4e-05)
(0.000438815 0.00061463 1e-06)
(0.000438815 0.00061463 2.4e-05)
(0.000440255 0.000614176 1e-06)
(0.000440255 0.000614176 2.4e-05)
(0.000441695 0.000613721 1e-06)
(0.000441695 0.000613721 2.4e-05)
(0.000443135 0.000613265 1e-06)
(0.000443135 0.000613265 2.4e-05)
(0.000444575 0.000612807 1e-06)
(0.000444575 0.000612807 2.4e-05)
(0.000446016 0.000612349 1e-06)
(0.000446016 0.000612349 2.4e-05)
(0.000447456 0.000611889 1e-06)
(0.000447456 0.000611889 2.4e-05)
(0.000448896 0.000611429 1e-06)
(0.000448896 0.000611429 2.4e-05)
(0.000450336 0.000610968 1e-06)
(0.000450336 0.000610968 2.4e-05)
(0.000451776 0.000610505 1e-06)
(0.000451776 0.000610505 2.4e-05)
(0.000453217 0.000610042 1e-06)
(0.000453217 0.000610042 2.4e-05)
(0.000454657 0.000609578 1e-06)
(0.000454657 0.000609578 2.4e-05)
(0.000456097 0.000609113 1e-06)
(0.000456097 0.000609113 2.4e-05)
(0.000457537 0.000608648 1e-06)
(0.000457537 0.000608648 2.4e-05)
(0.000458977 0.000608182 1e-06)
(0.000458977 0.000608182 2.4e-05)
(0.000460417 0.000607715 1e-06)
(0.000460417 0.000607715 2.4e-05)
(0.000461858 0.000607248 1e-06)
(0.000461858 0.000607248 2.4e-05)
(0.000463298 0.00060678 1e-06)
(0.000463298 0.00060678 2.4e-05)
(0.000464738 0.000606312 1e-06)
(0.000464738 0.000606312 2.4e-05)
(0.000466178 0.000605843 1e-06)
(0.000466178 0.000605843 2.4e-05)
(0.000467618 0.000605374 1e-06)
(0.000467618 0.000605374 2.4e-05)
(0.000469059 0.000604904 1e-06)
(0.000469059 0.000604904 2.4e-05)
(0.000470499 0.000604434 1e-06)
(0.000470499 0.000604434 2.4e-05)
(0.000471939 0.000603964 1e-06)
(0.000471939 0.000603964 2.4e-05)
(0.000473379 0.000603493 1e-06)
(0.000473379 0.000603493 2.4e-05)
(0.000474819 0.000603022 1e-06)
(0.000474819 0.000603022 2.4e-05)
(0.000476259 0.000602551 1e-06)
(0.000476259 0.000602551 2.4e-05)
(0.0004777 0.00060208 1e-06)
(0.0004777 0.00060208 2.4e-05)
(0.00047914 0.000601609 1e-06)
(0.00047914 0.000601609 2.4e-05)
(0.00048058 0.000601137 1e-06)
(0.00048058 0.000601137 2.4e-05)
(0.00048202 0.000600666 1e-06)
(0.00048202 0.000600666 2.4e-05)
(0.00048346 0.000600195 1e-06)
(0.00048346 0.000600195 2.4e-05)
(0.0004849 0.000599724 1e-06)
(0.0004849 0.000599724 2.4e-05)
(0.000486341 0.000599253 1e-06)
(0.000486341 0.000599253 2.4e-05)
(0.000487781 0.000598782 1e-06)
(0.000487781 0.000598782 2.4e-05)
(0.000489221 0.000598311 1e-06)
(0.000489221 0.000598311 2.4e-05)
(0.000490661 0.00059784 1e-06)
(0.000490661 0.00059784 2.4e-05)
(0.000492101 0.00059737 1e-06)
(0.000492101 0.00059737 2.4e-05)
(0.000493542 0.0005969 1e-06)
(0.000493542 0.0005969 2.4e-05)
(0.000494982 0.000596431 1e-06)
(0.000494982 0.000596431 2.4e-05)
(0.000496422 0.000595962 1e-06)
(0.000496422 0.000595962 2.4e-05)
(0.000497862 0.000595493 1e-06)
(0.000497862 0.000595493 2.4e-05)
(0.000499302 0.000595025 1e-06)
(0.000499302 0.000595025 2.4e-05)
(0.000500742 0.000594557 1e-06)
(0.000500742 0.000594557 2.4e-05)
(0.000502183 0.00059409 1e-06)
(0.000502183 0.00059409 2.4e-05)
(0.000503623 0.000593624 1e-06)
(0.000503623 0.000593624 2.4e-05)
(0.000505063 0.000593158 1e-06)
(0.000505063 0.000593158 2.4e-05)
(0.000506503 0.000592693 1e-06)
(0.000506503 0.000592693 2.4e-05)
(0.000507943 0.000592228 1e-06)
(0.000507943 0.000592228 2.4e-05)
(0.000509384 0.000591765 1e-06)
(0.000509384 0.000591765 2.4e-05)
(0.000510824 0.000591302 1e-06)
(0.000510824 0.000591302 2.4e-05)
(0.000512264 0.00059084 1e-06)
(0.000512264 0.00059084 2.4e-05)
(0.000513704 0.000590379 1e-06)
(0.000513704 0.000590379 2.4e-05)
(0.000515144 0.000589919 1e-06)
(0.000515144 0.000589919 2.4e-05)
(0.000516584 0.00058946 1e-06)
(0.000516584 0.00058946 2.4e-05)
(0.000518025 0.000589002 1e-06)
(0.000518025 0.000589002 2.4e-05)
(0.000519465 0.000588545 1e-06)
(0.000519465 0.000588545 2.4e-05)
(0.000520905 0.000588089 1e-06)
(0.000520905 0.000588089 2.4e-05)
(0.000522345 0.000587634 1e-06)
(0.000522345 0.000587634 2.4e-05)
(0.000523785 0.000587181 1e-06)
(0.000523785 0.000587181 2.4e-05)
(0.000525226 0.000586729 1e-06)
(0.000525226 0.000586729 2.4e-05)
(0.000526666 0.000586277 1e-06)
(0.000526666 0.000586277 2.4e-05)
(0.000528106 0.000585828 1e-06)
(0.000528106 0.000585828 2.4e-05)
(0.000529546 0.000585379 1e-06)
(0.000529546 0.000585379 2.4e-05)
(0.000530986 0.000584932 1e-06)
(0.000530986 0.000584932 2.4e-05)
(0.000532426 0.000584487 1e-06)
(0.000532426 0.000584487 2.4e-05)
(0.000533867 0.000584043 1e-06)
(0.000533867 0.000584043 2.4e-05)
(0.000535307 0.0005836 1e-06)
(0.000535307 0.0005836 2.4e-05)
(0.000536747 0.000583159 1e-06)
(0.000536747 0.000583159 2.4e-05)
(0.000538187 0.000582719 1e-06)
(0.000538187 0.000582719 2.4e-05)
(0.000539627 0.000582282 1e-06)
(0.000539627 0.000582282 2.4e-05)
(0.000541068 0.000581845 1e-06)
(0.000541068 0.000581845 2.4e-05)
(0.000542508 0.000581411 1e-06)
(0.000542508 0.000581411 2.4e-05)
(0.000543948 0.000580978 1e-06)
(0.000543948 0.000580978 2.4e-05)
(0.000545388 0.000580547 1e-06)
(0.000545388 0.000580547 2.4e-05)
(0.000546828 0.000580118 1e-06)
(0.000546828 0.000580118 2.4e-05)
(0.000548268 0.000579691 1e-06)
(0.000548268 0.000579691 2.4e-05)
(0.000549709 0.000579265 1e-06)
(0.000549709 0.000579265 2.4e-05)
(0.000551149 0.000578842 1e-06)
(0.000551149 0.000578842 2.4e-05)
(0.000552589 0.00057842 1e-06)
(0.000552589 0.00057842 2.4e-05)
(0.000554029 0.000578001 1e-06)
(0.000554029 0.000578001 2.4e-05)
(0.000555469 0.000577583 1e-06)
(0.000555469 0.000577583 2.4e-05)
(0.000556909 0.000577168 1e-06)
(0.000556909 0.000577168 2.4e-05)
(0.00055835 0.000576755 1e-06)
(0.00055835 0.000576755 2.4e-05)
(0.00055979 0.000576344 1e-06)
(0.00055979 0.000576344 2.4e-05)
(0.00056123 0.000575935 1e-06)
(0.00056123 0.000575935 2.4e-05)
(0.00056267 0.000575528 1e-06)
(0.00056267 0.000575528 2.4e-05)
(0.00056411 0.000575124 1e-06)
(0.00056411 0.000575124 2.4e-05)
(0.000565551 0.000574722 1e-06)
(0.000565551 0.000574722 2.4e-05)
(0.000566991 0.000574322 1e-06)
(0.000566991 0.000574322 2.4e-05)
(0.000568431 0.000573924 1e-06)
(0.000568431 0.000573924 2.4e-05)
(0.000569871 0.000573529 1e-06)
(0.000569871 0.000573529 2.4e-05)
(0.000571311 0.000573137 1e-06)
(0.000571311 0.000573137 2.4e-05)
(0.000572751 0.000572747 1e-06)
(0.000572751 0.000572747 2.4e-05)
(0.000574192 0.000572359 1e-06)
(0.000574192 0.000572359 2.4e-05)
(0.000575632 0.000571974 1e-06)
(0.000575632 0.000571974 2.4e-05)
(0.000577072 0.000571592 1e-06)
(0.000577072 0.000571592 2.4e-05)
(0.000578512 0.000571212 1e-06)
(0.000578512 0.000571212 2.4e-05)
(0.000579952 0.000570835 1e-06)
(0.000579952 0.000570835 2.4e-05)
(0.000581393 0.00057046 1e-06)
(0.000581393 0.00057046 2.4e-05)
(0.000582833 0.000570088 1e-06)
(0.000582833 0.000570088 2.4e-05)
(0.000584273 0.000569719 1e-06)
(0.000584273 0.000569719 2.4e-05)
(0.000585713 0.000569353 1e-06)
(0.000585713 0.000569353 2.4e-05)
(0.000587153 0.000568989 1e-06)
(0.000587153 0.000568989 2.4e-05)
(0.000588593 0.000568629 1e-06)
(0.000588593 0.000568629 2.4e-05)
(0.000590034 0.000568271 1e-06)
(0.000590034 0.000568271 2.4e-05)
(0.000591474 0.000567916 1e-06)
(0.000591474 0.000567916 2.4e-05)
(0.000592914 0.000567564 1e-06)
(0.000592914 0.000567564 2.4e-05)
(0.000594354 0.000567215 1e-06)
(0.000594354 0.000567215 2.4e-05)
(0.000595794 0.00056687 1e-06)
(0.000595794 0.00056687 2.4e-05)
(0.000597235 0.000566527 1e-06)
(0.000597235 0.000566527 2.4e-05)
(0.000598675 0.000566187 1e-06)
(0.000598675 0.000566187 2.4e-05)
(0.000600115 0.00056585 1e-06)
(0.000600115 0.00056585 2.4e-05)
(0.000601555 0.000565516 1e-06)
(0.000601555 0.000565516 2.4e-05)
(0.000602995 0.000565186 1e-06)
(0.000602995 0.000565186 2.4e-05)
(0.000604435 0.000564859 1e-06)
(0.000604435 0.000564859 2.4e-05)
(0.000605876 0.000564535 1e-06)
(0.000605876 0.000564535 2.4e-05)
(0.000607316 0.000564214 1e-06)
(0.000607316 0.000564214 2.4e-05)
(0.000608756 0.000563896 1e-06)
(0.000608756 0.000563896 2.4e-05)
(0.000610196 0.000563582 1e-06)
(0.000610196 0.000563582 2.4e-05)
(0.000611636 0.000563271 1e-06)
(0.000611636 0.000563271 2.4e-05)
(0.000613076 0.000562963 1e-06)
(0.000613076 0.000562963 2.4e-05)
(0.000614517 0.000562659 1e-06)
(0.000614517 0.000562659 2.4e-05)
(0.000615957 0.000562358 1e-06)
(0.000615957 0.000562358 2.4e-05)
(0.000617397 0.000562061 1e-06)
(0.000617397 0.000562061 2.4e-05)
(0.000618837 0.000561767 1e-06)
(0.000618837 0.000561767 2.4e-05)
(0.000620277 0.000561477 1e-06)
(0.000620277 0.000561477 2.4e-05)
(0.000621718 0.00056119 1e-06)
(0.000621718 0.00056119 2.4e-05)
(0.000623158 0.000560906 1e-06)
(0.000623158 0.000560906 2.4e-05)
(0.000624598 0.000560627 1e-06)
(0.000624598 0.000560627 2.4e-05)
(0.000626038 0.00056035 1e-06)
(0.000626038 0.00056035 2.4e-05)
(0.000627478 0.000560078 1e-06)
(0.000627478 0.000560078 2.4e-05)
(0.000628918 0.000559809 1e-06)
(0.000628918 0.000559809 2.4e-05)
(0.000630359 0.000559543 1e-06)
(0.000630359 0.000559543 2.4e-05)
(0.000631799 0.000559282 1e-06)