/*--------------------------------*- C++ -*----------------------------------*\
  =========                 |
  \\      /  F ield         | OpenFOAM: The Open Source CFD Toolbox
   \\    /   O peration     | Website:  https://openfoam.org
    \\  /    A nd           | Version:  9
     \\/     M anipulation  |
\*---------------------------------------------------------------------------*/
FoamFile
{
    format      ascii;
    class       extendedFeatureEdgeMesh;
    location    "constant/extendedFeatureEdgeMesh";
    object      fracture_scaled.extendedFeatureEdgeMesh;
}
// * * * * * * * * * * * * * * * * * * * * * * * * * * * * * * * * * * * * * //

// points

8004
(
(1e-12 0.0006 1e-12)
(1e-12 0.0006 2.3e-05)
(0.00288 0.0006 1e-12)
(0.00288 0.0006 2.3e-05)
(0.00288 0.0004 1e-12)
(0.00288 0.0004 2.3e-05)
(1e-12 0.0004 1e-12)
(1e-12 0.0004 2.3e-05)
(1.44018e-06 0.000600471 1e-12)
(1.44018e-06 0.000600471 2.3e-05)
(2.88036e-06 0.000600943 1e-12)
(2.88036e-06 0.000600943 2.3e-05)
(4.32054e-06 0.000601414 1e-12)
(4.32054e-06 0.000601414 2.3e-05)
(5.76072e-06 0.000601885 1e-12)
(5.76072e-06 0.000601885 2.3e-05)
(7.2009e-06 0.000602356 1e-12)
(7.2009e-06 0.000602356 2.3e-05)
(8.64108e-06 0.000602826 1e-12)
(8.64108e-06 0.000602826 2.3e-05)
(1.00813e-05 0.000603297 1e-12)
(1.00813e-05 0.000603297 2.3e-05)
(1.15214e-05 0.000603767 1e-12)
(1.15214e-05 0.000603767 2.3e-05)
(1.29616e-05 0.000604237 1e-12)
(1.29616e-05 0.000604237 2.3e-05)
(1.44018e-05 0.000604706 1e-12)
(1.44018e-05 0.000604706 2.3e-05)
(1.5842e-05 0.000605175 1e-12)
(1.5842e-05 0.000605175 2.3e-05)
(1.72822e-05 0.000605643 1e-12)
(1.72822e-05 0.000605643 2.3e-05)
(1.87223e-05 0.000606112 1e-12)
(1.87223e-05 0.000606112 2.3e-05)
(2.01625e-05 0.000606579 1e-12)
(2.01625e-05 0.000606579 2.3e-05)
(2.16027e-05 0.000607046 1e-12)
(2.16027e-05 0.000607046 2.3e-05)
(2.30429e-05 0.000607512 1e-12)
(2.30429e-05 0.000607512 2.3e-05)
(2.44831e-05 0.000607978 1e-12)
(2.44831e-05 0.000607978 2.3e-05)
(2.59232e-05 0.000608443 1e-12)
(2.59232e-05 0.000608443 2.3e-05)
(2.73634e-05 0.000608907 1e-12)
(2.73634e-05 0.000608907 2.3e-05)
(2.88036e-05 0.00060937 1e-12)
(2.88036e-05 0.00060937 2.3e-05)
(3.02438e-05 0.000609833 1e-12)
(3.02438e-05 0.000609833 2.3e-05)
(3.1684e-05 0.000610294 1e-12)
(3.1684e-05 0.000610294 2.3e-05)
(3.31241e-05 0.000610755 1e-12)
(3.31241e-05 0.000610755 2.3e-05)
(3.45643e-05 0.000611215 1e-12)
(3.45643e-05 0.000611215 2.3e-05)
(3.60045e-05 0.000611674 1e-12)
(3.60045e-05 0.000611674 2.3e-05)
(3.74447e-05 0.000612131 1e-12)
(3.74447e-05 0.000612131 2.3e-05)
(3.88849e-05 0.000612588 1e-12)
(3.88849e-05 0.000612588 2.3e-05)
(4.0325e-05 0.000613044 1e-12)
(4.0325e-05 0.000613044 2.3e-05)
(4.17652e-05 0.000613498 1e-12)
(4.17652e-05 0.000613498 2.3e-05)
(4.32054e-05 0.000613951 1e-12)
(4.32054e-05 0.000613951 2.3e-05)
(4.46456e-05 0.000614403 1e-12)
(4.46456e-05 0.000614403 2.3e-05)
(4.60858e-05 0.000614854 1e-12)
(4.60858e-05 0.000614854 2.3e-05)
(4.75259e-05 0.000615303 1e-12)
(4.75259e-05 0.000615303 2.3e-05)
(4.89661e-05 0.000615751 1e-12)
(4.89661e-05 0.000615751 2.3e-05)
(5.04063e-05 0.000616198 1e-12)
(5.04063e-05 0.000616198 2.3e-05)
(5.18465e-05 0.000616643 1e-12)
(5.18465e-05 0.000616643 2.3e-05)
(5.32867e-05 0.000617087 1e-12)
(5.32867e-05 0.000617087 2.3e-05)
(5.47268e-05 0.000617529 1e-12)
(5.47268e-05 0.000617529 2.3e-05)
(5.6167e-05 0.000617969 1e-12)
(5.6167e-05 0.000617969 2.3e-05)
(5.76072e-05 0.000618408 1e-12)
(5.76072e-05 0.000618408 2.3e-05)
(5.90474e-05 0.000618846 1e-12)
(5.90474e-05 0.000618846 2.3e-05)
(6.04876e-05 0.000619281 1e-12)
(6.04876e-05 0.000619281 2.3e-05)
(6.19277e-05 0.000619715 1e-12)
(6.19277e-05 0.000619715 2.3e-05)
(6.33679e-05 0.000620148 1e-12)
(6.33679e-05 0.000620148 2.3e-05)
(6.48081e-05 0.000620578 1e-12)
(6.48081e-05 0.000620578 2.3e-05)
(6.62483e-05 0.000621007 1e-12)
(6.62483e-05 0.000621007 2.3e-05)
(6.76885e-05 0.000621433 1e-12)
(6.76885e-05 0.000621433 2.3e-05)
(6.91286e-05 0.000621858 1e-12)
(6.91286e-05 0.000621858 2.3e-05)
(7.05688e-05 0.000622281 1e-12)
(7.05688e-05 0.000622281 2.3e-05)
(7.2009e-05 0.000622702 1e-12)
(7.2009e-05 0.000622702 2.3e-05)
(7.34492e-05 0.000623121 1e-12)
(7.34492e-05 0.000623121 2.3e-05)
(7.48894e-05 0.000623538 1e-12)
(7.48894e-05 0.000623538 2.3e-05)
(7.63295e-05 0.000623953 1e-12)
(7.63295e-05 0.000623953 2.3e-05)
(7.77697e-05 0.000624365 1e-12)
(7.77697e-05 0.000624365 2.3e-05)
(7.92099e-05 0.000624776 1e-12)
(7.92099e-05 0.000624776 2.3e-05)
(8.06501e-05 0.000625184 1e-12)
(8.06501e-05 0.000625184 2.3e-05)
(8.20903e-05 0.00062559 1e-12)
(8.20903e-05 0.00062559 2.3e-05)
(8.35304e-05 0.000625994 1e-12)
(8.35304e-05 0.000625994 2.3e-05)
(8.49706e-05 0.000626395 1e-12)
(8.49706e-05 0.000626395 2.3e-05)
(8.64108e-05 0.000626794 1e-12)
(8.64108e-05 0.000626794 2.3e-05)
(8.7851e-05 0.000627191 1e-12)
(8.7851e-05 0.000627191 2.3e-05)
(8.92912e-05 0.000627585 1e-12)
(8.92912e-05 0.000627585 2.3e-05)
(9.07313e-05 0.000627977 1e-12)
(9.07313e-05 0.000627977 2.3e-05)
(9.21715e-05 0.000628367 1e-12)
(9.21715e-05 0.000628367 2.3e-05)
(9.36117e-05 0.000628753 1e-12)
(9.36117e-05 0.000628753 2.3e-05)
(9.50519e-05 0.000629138 1e-12)
(9.50519e-05 0.000629138 2.3e-05)
(9.64921e-05 0.000629519 1e-12)
(9.64921e-05 0.000629519 2.3e-05)
(9.79322e-05 0.000629898 1e-12)
(9.79322e-05 0.000629898 2.3e-05)
(9.93724e-05 0.000630275 1e-12)
(9.93724e-05 0.000630275 2.3e-05)
(0.000100813 0.000630649 1e-12)
(0.000100813 0.000630649 2.3e-05)
(0.000102253 0.00063102 1e-12)
(0.000102253 0.00063102 2.3e-05)
(0.000103693 0.000631388 1e-12)
(0.000103693 0.000631388 2.3e-05)
(0.000105133 0.000631753 1e-12)
(0.000105133 0.000631753 2.3e-05)
(0.000106573 0.000632116 1e-12)
(0.000106573 0.000632116 2.3e-05)
(0.000108013 0.000632476 1e-12)
(0.000108013 0.000632476 2.3e-05)
(0.000109454 0.000632833 1e-12)
(0.000109454 0.000632833 2.3e-05)
(0.000110894 0.000633187 1e-12)
(0.000110894 0.000633187 2.3e-05)
(0.000112334 0.000633538 1e-12)
(0.000112334 0.000633538 2.3e-05)
(0.000113774 0.000633886 1e-12)
(0.000113774 0.000633886 2.3e-05)
(0.000115214 0.000634231 1e-12)
(0.000115214 0.000634231 2.3e-05)
(0.000116655 0.000634573 1e-12)
(0.000116655 0.000634573 2.3e-05)
(0.000118095 0.000634912 1e-12)
(0.000118095 0.000634912 2.3e-05)
(0.000119535 0.000635248 1e-12)
(0.000119535 0.000635248 2.3e-05)
(0.000120975 0.00063558 1e-12)
(0.000120975 0.00063558 2.3e-05)
(0.000122415 0.00063591 1e-12)
(0.000122415 0.00063591 2.3e-05)
(0.000123855 0.000636236 1e-12)
(0.000123855 0.000636236 2.3e-05)
(0.000125296 0.000636559 1e-12)
(0.000125296 0.000636559 2.3e-05)
(0.000126736 0.000636879 1e-12)
(0.000126736 0.000636879 2.3e-05)
(0.000128176 0.000637196 1e-12)
(0.000128176 0.000637196 2.3e-05)
(0.000129616 0.000637509 1e-12)
(0.000129616 0.000637509 2.3e-05)
(0.000131056 0.000637819 1e-12)
(0.000131056 0.000637819 2.3e-05)
(0.000132497 0.000638126 1e-12)
(0.000132497 0.000638126 2.3e-05)
(0.000133937 0.000638429 1e-12)
(0.000133937 0.000638429 2.3e-05)
(0.000135377 0.000638729 1e-12)
(0.000135377 0.000638729 2.3e-05)
(0.000136817 0.000639025 1e-12)
(0.000136817 0.000639025 2.3e-05)
(0.000138257 0.000639318 1e-12)
(0.000138257 0.000639318 2.3e-05)
(0.000139697 0.000639607 1e-12)
(0.000139697 0.000639607 2.3e-05)
(0.000141138 0.000639893 1e-12)
(0.000141138 0.000639893 2.3e-05)
(0.000142578 0.000640176 1e-12)
(0.000142578 0.000640176 2.3e-05)
(0.000144018 0.000640454 1e-12)
(0.000144018 0.000640454 2.3e-05)
(0.000145458 0.000640729 1e-12)
(0.000145458 0.000640729 2.3e-05)
(0.000146898 0.000641001 1e-12)
(0.000146898 0.000641001 2.3e-05)
(0.000148339 0.000641269 1e-12)
(0.000148339 0.000641269 2.3e-05)
(0.000149779 0.000641533 1e-12)
(0.000149779 0.000641533 2.3e-05)
(0.000151219 0.000641794 1e-12)
(0.000151219 0.000641794 2.3e-05)
(0.000152659 0.000642051 1e-12)
(0.000152659 0.000642051 2.3e-05)
(0.000154099 0.000642304 1e-12)
(0.000154099 0.000642304 2.3e-05)
(0.000155539 0.000642553 1e-12)
(0.000155539 0.000642553 2.3e-05)
(0.00015698 0.000642799 1e-12)
(0.00015698 0.000642799 2.3e-05)
(0.00015842 0.00064304 1e-12)
(0.00015842 0.00064304 2.3e-05)
(0.00015986 0.000643278 1e-12)
(0.00015986 0.000643278 2.3e-05)
(0.0001613 0.000643512 1e-12)
(0.0001613 0.000643512 2.3e-05)
(0.00016274 0.000643743 1e-12)
(0.00016274 0.000643743 2.3e-05)
(0.000164181 0.000643969 1e-12)
(0.000164181 0.000643969 2.3e-05)
(0.000165621 0.000644191 1e-12)
(0.000165621 0.000644191 2.3e-05)
(0.000167061 0.00064441 1e-12)
(0.000167061 0.00064441 2.3e-05)
(0.000168501 0.000644625 1e-12)
(0.000168501 0.000644625 2.3e-05)
(0.000169941 0.000644835 1e-12)
(0.000169941 0.000644835 2.3e-05)
(0.000171381 0.000645042 1e-12)
(0.000171381 0.000645042 2.3e-05)
(0.000172822 0.000645244 1e-12)
(0.000172822 0.000645244 2.3e-05)
(0.000174262 0.000645443 1e-12)
(0.000174262 0.000645443 2.3e-05)
(0.000175702 0.000645638 1e-12)
(0.000175702 0.000645638 2.3e-05)
(0.000177142 0.000645828 1e-12)
(0.000177142 0.000645828 2.3e-05)
(0.000178582 0.000646014 1e-12)
(0.000178582 0.000646014 2.3e-05)
(0.000180023 0.000646197 1e-12)
(0.000180023 0.000646197 2.3e-05)
(0.000181463 0.000646375 1e-12)
(0.000181463 0.000646375 2.3e-05)
(0.000182903 0.000646549 1e-12)
(0.000182903 0.000646549 2.3e-05)
(0.000184343 0.000646719 1e-12)
(0.000184343 0.000646719 2.3e-05)
(0.000185783 0.000646885 1e-12)
(0.000185783 0.000646885 2.3e-05)
(0.000187223 0.000647047 1e-12)
(0.000187223 0.000647047 2.3e-05)
(0.000188664 0.000647204 1e-12)
(0.000188664 0.000647204 2.3e-05)
(0.000190104 0.000647357 1e-12)
(0.000190104 0.000647357 2.3e-05)
(0.000191544 0.000647506 1e-12)
(0.000191544 0.000647506 2.3e-05)
(0.000192984 0.000647651 1e-12)
(0.000192984 0.000647651 2.3e-05)
(0.000194424 0.000647792 1e-12)
(0.000194424 0.000647792 2.3e-05)
(0.000195864 0.000647928 1e-12)
(0.000195864 0.000647928 2.3e-05)
(0.000197305 0.00064806 1e-12)
(0.000197305 0.00064806 2.3e-05)
(0.000198745 0.000648188 1e-12)
(0.000198745 0.000648188 2.3e-05)
(0.000200185 0.000648312 1e-12)
(0.000200185 0.000648312 2.3e-05)
(0.000201625 0.000648431 1e-12)
(0.000201625 0.000648431 2.3e-05)
(0.000203065 0.000648546 1e-12)
(0.000203065 0.000648546 2.3e-05)
(0.000204506 0.000648657 1e-12)
(0.000204506 0.000648657 2.3e-05)
(0.000205946 0.000648763 1e-12)
(0.000205946 0.000648763 2.3e-05)
(0.000207386 0.000648865 1e-12)
(0.000207386 0.000648865 2.3e-05)
(0.000208826 0.000648963 1e-12)
(0.000208826 0.000648963 2.3e-05)
(0.000210266 0.000649056 1e-12)
(0.000210266 0.000649056 2.3e-05)
(0.000211706 0.000649145 1e-12)
(0.000211706 0.000649145 2.3e-05)
(0.000213147 0.00064923 1e-12)
(0.000213147 0.00064923 2.3e-05)
(0.000214587 0.00064931 1e-12)
(0.000214587 0.00064931 2.3e-05)
(0.000216027 0.000649386 1e-12)
(0.000216027 0.000649386 2.3e-05)
(0.000217467 0.000649457 1e-12)
(0.000217467 0.000649457 2.3e-05)
(0.000218907 0.000649524 1e-12)
(0.000218907 0.000649524 2.3e-05)
(0.000220348 0.000649587 1e-12)
(0.000220348 0.000649587 2.3e-05)
(0.000221788 0.000649645 1e-12)
(0.000221788 0.000649645 2.3e-05)
(0.000223228 0.000649699 1e-12)
(0.000223228 0.000649699 2.3e-05)
(0.000224668 0.000649748 1e-12)
(0.000224668 0.000649748 2.3e-05)
(0.000226108 0.000649793 1e-12)
(0.000226108 0.000649793 2.3e-05)
(0.000227548 0.000649834 1e-12)
(0.000227548 0.000649834 2.3e-05)
(0.000228989 0.00064987 1e-12)
(0.000228989 0.00064987 2.3e-05)
(0.000230429 0.000649902 1e-12)
(0.000230429 0.000649902 2.3e-05)
(0.000231869 0.000649929 1e-12)
(0.000231869 0.000649929 2.3e-05)
(0.000233309 0.000649952 1e-12)
(0.000233309 0.000649952 2.3e-05)
(0.000234749 0.00064997 1e-12)
(0.000234749 0.00064997 2.3e-05)
(0.00023619 0.000649984 1e-12)
(0.00023619 0.000649984 2.3e-05)
(0.00023763 0.000649994 1e-12)
(0.00023763 0.000649994 2.3e-05)
(0.00023907 0.000649999 1e-12)
(0.00023907 0.000649999 2.3e-05)
(0.00024051 0.00065 1e-12)
(0.00024051 0.00065 2.3e-05)
(0.00024195 0.000649996 1e-12)
(0.00024195 0.000649996 2.3e-05)
(0.00024339 0.000649988 1e-12)
(0.00024339 0.000649988 2.3e-05)
(0.000244831 0.000649975 1e-12)
(0.000244831 0.000649975 2.3e-05)
(0.000246271 0.000649958 1e-12)
(0.000246271 0.000649958 2.3e-05)
(0.000247711 0.000649936 1e-12)
(0.000247711 0.000649936 2.3e-05)
(0.000249151 0.00064991 1e-12)
(0.000249151 0.00064991 2.3e-05)
(0.000250591 0.00064988 1e-12)
(0.000250591 0.00064988 2.3e-05)
(0.000252031 0.000649845 1e-12)
(0.000252031 0.000649845 2.3e-05)
(0.000253472 0.000649806 1e-12)
(0.000253472 0.000649806 2.3e-05)
(0.000254912 0.000649762 1e-12)
(0.000254912 0.000649762 2.3e-05)
(0.000256352 0.000649714 1e-12)
(0.000256352 0.000649714 2.3e-05)
(0.000257792 0.000649661 1e-12)
(0.000257792 0.000649661 2.3e-05)
(0.000259232 0.000649604 1e-12)
(0.000259232 0.000649604 2.3e-05)
(0.000260673 0.000649543 1e-12)
(0.000260673 0.000649543 2.3e-05)
(0.000262113 0.000649477 1e-12)
(0.000262113 0.000649477 2.3e-05)
(0.000263553 0.000649407 1e-12)
(0.000263553 0.000649407 2.3e-05)
(0.000264993 0.000649333 1e-12)
(0.000264993 0.000649333 2.3e-05)
(0.000266433 0.000649254 1e-12)
(0.000266433 0.000649254 2.3e-05)
(0.000267874 0.00064917 1e-12)
(0.000267874 0.00064917 2.3e-05)
(0.000269314 0.000649083 1e-12)
(0.000269314 0.000649083 2.3e-05)
(0.000270754 0.000648991 1e-12)
(0.000270754 0.000648991 2.3e-05)
(0.000272194 0.000648894 1e-12)
(0.000272194 0.000648894 2.3e-05)
(0.000273634 0.000648793 1e-12)
(0.000273634 0.000648793 2.3e-05)
(0.000275074 0.000648688 1e-12)
(0.000275074 0.000648688 2.3e-05)
(0.000276515 0.000648579 1e-12)
(0.000276515 0.000648579 2.3e-05)
(0.000277955 0.000648465 1e-12)
(0.000277955 0.000648465 2.3e-05)
(0.000279395 0.000648347 1e-12)
(0.000279395 0.000648347 2.3e-05)
(0.000280835 0.000648225 1e-12)
(0.000280835 0.000648225 2.3e-05)
(0.000282275 0.000648098 1e-12)
(0.000282275 0.000648098 2.3e-05)
(0.000283715 0.000647967 1e-12)
(0.000283715 0.000647967 2.3e-05)
(0.000285156 0.000647832 1e-12)
(0.000285156 0.000647832 2.3e-05)
(0.000286596 0.000647693 1e-12)
(0.000286596 0.000647693 2.3e-05)
(0.000288036 0.000647549 1e-12)
(0.000288036 0.000647549 2.3e-05)
(0.000289476 0.000647401 1e-12)
(0.000289476 0.000647401 2.3e-05)
(0.000290916 0.000647249 1e-12)
(0.000290916 0.000647249 2.3e-05)
(0.000292357 0.000647093 1e-12)
(0.000292357 0.000647093 2.3e-05)
(0.000293797 0.000646933 1e-12)
(0.000293797 0.000646933 2.3e-05)
(0.000295237 0.000646768 1e-12)
(0.000295237 0.000646768 2.3e-05)
(0.000296677 0.000646599 1e-12)
(0.000296677 0.000646599 2.3e-05)
(0.000298117 0.000646426 1e-12)
(0.000298117 0.000646426 2.3e-05)
(0.000299557 0.000646249 1e-12)
(0.000299557 0.000646249 2.3e-05)
(0.000300998 0.000646068 1e-12)
(0.000300998 0.000646068 2.3e-05)
(0.000302438 0.000645883 1e-12)
(0.000302438 0.000645883 2.3e-05)
(0.000303878 0.000645693 1e-12)
(0.000303878 0.000645693 2.3e-05)
(0.000305318 0.0006455 1e-12)
(0.000305318 0.0006455 2.3e-05)
(0.000306758 0.000645303 1e-12)
(0.000306758 0.000645303 2.3e-05)
(0.000308199 0.000645101 1e-12)
(0.000308199 0.000645101 2.3e-05)
(0.000309639 0.000644896 1e-12)
(0.000309639 0.000644896 2.3e-05)
(0.000311079 0.000644686 1e-12)
(0.000311079 0.000644686 2.3e-05)
(0.000312519 0.000644473 1e-12)
(0.000312519 0.000644473 2.3e-05)
(0.000313959 0.000644256 1e-12)
(0.000313959 0.000644256 2.3e-05)
(0.000315399 0.000644034 1e-12)
(0.000315399 0.000644034 2.3e-05)
(0.00031684 0.000643809 1e-12)
(0.00031684 0.000643809 2.3e-05)
(0.00031828 0.00064358 1e-12)
(0.00031828 0.00064358 2.3e-05)
(0.00031972 0.000643347 1e-12)
(0.00031972 0.000643347 2.3e-05)
(0.00032116 0.00064311 1e-12)
(0.00032116 0.00064311 2.3e-05)
(0.0003226 0.00064287 1e-12)
(0.0003226 0.00064287 2.3e-05)
(0.00032404 0.000642625 1e-12)
(0.00032404 0.000642625 2.3e-05)
(0.000325481 0.000642377 1e-12)
(0.000325481 0.000642377 2.3e-05)
(0.000326921 0.000642125 1e-12)
(0.000326921 0.000642125 2.3e-05)
(0.000328361 0.000641869 1e-12)
(0.000328361 0.000641869 2.3e-05)
(0.000329801 0.00064161 1e-12)
(0.000329801 0.00064161 2.3e-05)
(0.000331241 0.000641346 1e-12)
(0.000331241 0.000641346 2.3e-05)
(0.000332682 0.00064108 1e-12)
(0.000332682 0.00064108 2.3e-05)
(0.000334122 0.000640809 1e-12)
(0.000334122 0.000640809 2.3e-05)
(0.000335562 0.000640535 1e-12)
(0.000335562 0.000640535 2.3e-05)
(0.000337002 0.000640257 1e-12)
(0.000337002 0.000640257 2.3e-05)
(0.000338442 0.000639976 1e-12)
(0.000338442 0.000639976 2.3e-05)
(0.000339882 0.000639691 1e-12)
(0.000339882 0.000639691 2.3e-05)
(0.000341323 0.000639403 1e-12)
(0.000341323 0.000639403 2.3e-05)
(0.000342763 0.000639111 1e-12)
(0.000342763 0.000639111 2.3e-05)
(0.000344203 0.000638815 1e-12)
(0.000344203 0.000638815 2.3e-05)
(0.000345643 0.000638517 1e-12)
(0.000345643 0.000638517 2.3e-05)
(0.000347083 0.000638214 1e-12)
(0.000347083 0.000638214 2.3e-05)
(0.000348524 0.000637909 1e-12)
(0.000348524 0.000637909 2.3e-05)
(0.000349964 0.0006376 1e-12)
(0.000349964 0.0006376 2.3e-05)
(0.000351404 0.000637287 1e-12)
(0.000351404 0.000637287 2.3e-05)
(0.000352844 0.000636972 1e-12)
(0.000352844 0.000636972 2.3e-05)
(0.000354284 0.000636653 1e-12)
(0.000354284 0.000636653 2.3e-05)
(0.000355724 0.000636331 1e-12)
(0.000355724 0.000636331 2.3e-05)
(0.000357165 0.000636005 1e-12)
(0.000357165 0.000636005 2.3e-05)
(0.000358605 0.000635677 1e-12)
(0.000358605 0.000635677 2.3e-05)
(0.000360045 0.000635345 1e-12)
(0.000360045 0.000635345 2.3e-05)
(0.000361485 0.00063501 1e-12)
(0.000361485 0.00063501 2.3e-05)
(0.000362925 0.000634672 1e-12)
(0.000362925 0.000634672 2.3e-05)
(0.000364366 0.000634331 1e-12)
(0.000364366 0.000634331 2.3e-05)
(0.000365806 0.000633987 1e-12)
(0.000365806 0.000633987 2.3e-05)
(0.000367246 0.00063364 1e-12)
(0.000367246 0.00063364 2.3e-05)
(0.000368686 0.000633289 1e-12)
(0.000368686 0.000633289 2.3e-05)
(0.000370126 0.000632936 1e-12)
(0.000370126 0.000632936 2.3e-05)
(0.000371566 0.00063258 1e-12)
(0.000371566 0.00063258 2.3e-05)
(0.000373007 0.000632221 1e-12)
(0.000373007 0.000632221 2.3e-05)
(0.000374447 0.000631859 1e-12)
(0.000374447 0.000631859 2.3e-05)
(0.000375887 0.000631495 1e-12)
(0.000375887 0.000631495 2.3e-05)
(0.000377327 0.000631127 1e-12)
(0.000377327 0.000631127 2.3e-05)
(0.000378767 0.000630757 1e-12)
(0.000378767 0.000630757 2.3e-05)
(0.000380208 0.000630384 1e-12)
(0.000380208 0.000630384 2.3e-05)
(0.000381648 0.000630009 1e-12)
(0.000381648 0.000630009 2.3e-05)
(0.000383088 0.00062963 1e-12)
(0.000383088 0.00062963 2.3e-05)
(0.000384528 0.000629249 1e-12)
(0.000384528 0.000629249 2.3e-05)
(0.000385968 0.000628866 1e-12)
(0.000385968 0.000628866 2.3e-05)
(0.000387408 0.00062848 1e-12)
(0.000387408 0.00062848 2.3e-05)
(0.000388849 0.000628091 1e-12)
(0.000388849 0.000628091 2.3e-05)
(0.000390289 0.0006277 1e-12)
(0.000390289 0.0006277 2.3e-05)
(0.000391729 0.000627306 1e-12)
(0.000391729 0.000627306 2.3e-05)
(0.000393169 0.00062691 1e-12)
(0.000393169 0.00062691 2.3e-05)
(0.000394609 0.000626512 1e-12)
(0.000394609 0.000626512 2.3e-05)
(0.000396049 0.000626111 1e-12)
(0.000396049 0.000626111 2.3e-05)
(0.00039749 0.000625708 1e-12)
(0.00039749 0.000625708 2.3e-05)
(0.00039893 0.000625303 1e-12)
(0.00039893 0.000625303 2.3e-05)
(0.00040037 0.000624895 1e-12)
(0.00040037 0.000624895 2.3e-05)
(0.00040181 0.000624485 1e-12)
(0.00040181 0.000624485 2.3e-05)
(0.00040325 0.000624073 1e-12)
(0.00040325 0.000624073 2.3e-05)
(0.000404691 0.000623659 1e-12)
(0.000404691 0.000623659 2.3e-05)
(0.000406131 0.000623243 1e-12)
(0.000406131 0.000623243 2.3e-05)
(0.000407571 0.000622825 1e-12)
(0.000407571 0.000622825 2.3e-05)
(0.000409011 0.000622404 1e-12)
(0.000409011 0.000622404 2.3e-05)
(0.000410451 0.000621982 1e-12)
(0.000410451 0.000621982 2.3e-05)
(0.000411891 0.000621558 1e-12)
(0.000411891 0.000621558 2.3e-05)
(0.000413332 0.000621131 1e-12)
(0.000413332 0.000621131 2.3e-05)
(0.000414772 0.000620703 1e-12)
(0.000414772 0.000620703 2.3e-05)
(0.000416212 0.000620273 1e-12)
(0.000416212 0.000620273 2.3e-05)
(0.000417652 0.000619842 1e-12)
(0.000417652 0.000619842 2.3e-05)
(0.000419092 0.000619408 1e-12)
(0.000419092 0.000619408 2.3e-05)
(0.000420533 0.000618973 1e-12)
(0.000420533 0.000618973 2.3e-05)
(0.000421973 0.000618536 1e-12)
(0.000421973 0.000618536 2.3e-05)
(0.000423413 0.000618098 1e-12)
(0.000423413 0.000618098 2.3e-05)
(0.000424853 0.000617657 1e-12)
(0.000424853 0.000617657 2.3e-05)
(0.000426293 0.000617216 1e-12)
(0.000426293 0.000617216 2.3e-05)
(0.000427733 0.000616773 1e-12)
(0.000427733 0.000616773 2.3e-05)
(0.000429174 0.000616328 1e-12)
(0.000429174 0.000616328 2.3e-05)
(0.000430614 0.000615882 1e-12)
(0.000430614 0.000615882 2.3e-05)
(0.000432054 0.000615434 1e-12)
(0.000432054 0.000615434 2.3e-05)
(0.000433494 0.000614985 1e-12)
(0.000433494 0.000614985 2.3e-05)
(0.000434934 0.000614535 1e-12)
(0.000434934 0.000614535 2.3e-05)
(0.000436375 0.000614083 1e-12)
(0.000436375 0.000614083 2.3e-05)
(0.000437815 0.00061363 1e-12)
(0.000437815 0.00061363 2.3e-05)
(0.000439255 0.000613176 1e-12)
(0.000439255 0.000613176 2.3e-05)
(0.000440695 0.000612721 1e-12)
(0.000440695 0.000612721 2.3e-05)
(0.000442135 0.000612265 1e-12)
(0.000442135 0.000612265 2.3e-05)
(0.000443575 0.000611807 1e-12)
(0.000443575 0.000611807 2.3e-05)
(0.000445016 0.000611349 1e-12)
(0.000445016 0.000611349 2.3e-05)
(0.000446456 0.000610889 1e-12)
(0.000446456 0.000610889 2.3e-05)
(0.000447896 0.000610429 1e-12)
(0.000447896 0.000610429 2.3e-05)
(0.000449336 0.000609967 1e-12)
(0.000449336 0.000609967 2.3e-05)
(0.000450776 0.000609505 1e-12)
(0.000450776 0.000609505 2.3e-05)
(0.000452217 0.000609042 1e-12)
(0.000452217 0.000609042 2.3e-05)
(0.000453657 0.000608578 1e-12)
(0.000453657 0.000608578 2.3e-05)
(0.000455097 0.000608113 1e-12)
(0.000455097 0.000608113 2.3e-05)
(0.000456537 0.000607648 1e-12)
(0.000456537 0.000607648 2.3e-05)
(0.000457977 0.000607182 1e-12)
(0.000457977 0.000607182 2.3e-05)
(0.000459417 0.000606715 1e-12)
(0.000459417 0.000606715 2.3e-05)
(0.000460858 0.000606248 1e-12)
(0.000460858 0.000606248 2.3e-05)
(0.000462298 0.00060578 1e-12)
(0.000462298 0.00060578 2.3e-05)
(0.000463738 0.000605312 1e-12)
(0.000463738 0.000605312 2.3e-05)
(0.000465178 0.000604843 1e-12)
(0.000465178 0.000604843 2.3e-05)
(0.000466618 0.000604374 1e-12)
(0.000466618 0.000604374 2.3e-05)
(0.000468059 0.000603904 1e-12)
(0.000468059 0.000603904 2.3e-05)
(0.000469499 0.000603434 1e-12)
(0.000469499 0.000603434 2.3e-05)
(0.000470939 0.000602964 1e-12)
(0.000470939 0.000602964 2.3e-05)
(0.000472379 0.000602493 1e-12)
(0.000472379 0.000602493 2.3e-05)
(0.000473819 0.000602022 1e-12)
(0.000473819 0.000602022 2.3e-05)
(0.000475259 0.000601551 1e-12)
(0.000475259 0.000601551 2.3e-05)
(0.0004767 0.00060108 1e-12)
(0.0004767 0.00060108 2.3e-05)
(0.00047814 0.000600609 1e-12)
(0.00047814 0.000600609 2.3e-05)
(0.00047958 0.000600137 1e-12)
(0.00047958 0.000600137 2.3e-05)
(0.00048102 0.000599666 1e-12)
(0.00048102 0.000599666 2.3e-05)
(0.00048246 0.000599195 1e-12)
(0.00048246 0.000599195 2.3e-05)
(0.0004839 0.000598724 1e-12)
(0.0004839 0.000598724 2.3e-05)
(0.000485341 0.000598253 1e-12)
(0.000485341 0.000598253 2.3e-05)
(0.000486781 0.000597782 1e-12)
(0.000486781 0.000597782 2.3e-05)
(0.000488221 0.000597311 1e-12)
(0.000488221 0.000597311 2.3e-05)
(0.000489661 0.00059684 1e-12)
(0.000489661 0.00059684 2.3e-05)
(0.000491101 0.00059637 1e-12)
(0.000491101 0.00059637 2.3e-05)
(0.000492542 0.0005959 1e-12)
(0.000492542 0.0005959 2.3e-05)
(0.000493982 0.000595431 1e-12)
(0.000493982 0.000595431 2.3e-05)
(0.000495422 0.000594962 1e-12)
(0.000495422 0.000594962 2.3e-05)
(0.000496862 0.000594493 1e-12)
(0.000496862 0.000594493 2.3e-05)
(0.000498302 0.000594025 1e-12)
(0.000498302 0.000594025 2.3e-05)
(0.000499742 0.000593557 1e-12)
(0.000499742 0.000593557 2.3e-05)
(0.000501183 0.00059309 1e-12)
(0.000501183 0.00059309 2.3e-05)
(0.000502623 0.000592624 1e-12)
(0.000502623 0.000592624 2.3e-05)
(0.000504063 0.000592158 1e-12)
(0.000504063 0.000592158 2.3e-05)
(0.000505503 0.000591693 1e-12)
(0.000505503 0.000591693 2.3e-05)
(0.000506943 0.000591228 1e-12)
(0.000506943 0.000591228 2.3e-05)
(0.000508384 0.000590765 1e-12)
(0.000508384 0.000590765 2.3e-05)
(0.000509824 0.000590302 1e-12)
(0.000509824 0.000590302 2.3e-05)
(0.000511264 0.00058984 1e-12)
(0.000511264 0.00058984 2.3e-05)
(0.000512704 0.000589379 1e-12)
(0.000512704 0.000589379 2.3e-05)
(0.000514144 0.000588919 1e-12)
(0.000514144 0.000588919 2.3e-05)
(0.000515584 0.00058846 1e-12)
(0.000515584 0.00058846 2.3e-05)
(0.000517025 0.000588002 1e-12)
(0.000517025 0.000588002 2.3e-05)
(0.000518465 0.000587545 1e-12)
(0.000518465 0.000587545 2.3e-05)
(0.000519905 0.000587089 1e-12)
(0.000519905 0.000587089 2.3e-05)
(0.000521345 0.000586634 1e-12)
(0.000521345 0.000586634 2.3e-05)
(0.000522785 0.000586181 1e-12)
(0.000522785 0.000586181 2.3e-05)
(0.000524226 0.000585728 1e-12)
(0.000524226 0.000585728 2.3e-05)
(0.000525666 0.000585277 1e-12)
(0.000525666 0.000585277 2.3e-05)
(0.000527106 0.000584828 1e-12)
(0.000527106 0.000584828 2.3e-05)
(0.000528546 0.000584379 1e-12)
(0.000528546 0.000584379 2.3e-05)
(0.000529986 0.000583932 1e-12)
(0.000529986 0.000583932 2.3e-05)
(0.000531426 0.000583487 1e-12)
(0.000531426 0.000583487 2.3e-05)
(0.000532867 0.000583043 1e-12)
(0.000532867 0.000583043 2.3e-05)
(0.000534307 0.0005826 1e-12)
(0.000534307 0.0005826 2.3e-05)
(0.000535747 0.000582159 1e-12)
(0.000535747 0.000582159 2.3e-05)
(0.000537187 0.000581719 1e-12)
(0.000537187 0.000581719 2.3e-05)
(0.000538627 0.000581282 1e-12)
(0.000538627 0.000581282 2.3e-05)
(0.000540068 0.000580845 1e-12)
(0.000540068 0.000580845 2.3e-05)
(0.000541508 0.000580411 1e-12)
(0.000541508 0.000580411 2.3e-05)
(0.000542948 0.000579978 1e-12)
(0.000542948 0.000579978 2.3e-05)
(0.000544388 0.000579547 1e-12)
(0.000544388 0.000579547 2.3e-05)
(0.000545828 0.000579118 1e-12)
(0.000545828 0.000579118 2.3e-05)
(0.000547268 0.000578691 1e-12)
(0.000547268 0.000578691 2.3e-05)
(0.000548709 0.000578265 1e-12)
(0.000548709 0.000578265 2.3e-05)
(0.000550149 0.000577842 1e-12)
(0.000550149 0.000577842 2.3e-05)
(0.000551589 0.00057742 1e-12)
(0.000551589 0.00057742 2.3e-05)
(0.000553029 0.000577001 1e-12)
(0.000553029 0.000577001 2.3e-05)
(0.000554469 0.000576583 1e-12)
(0.000554469 0.000576583 2.3e-05)
(0.000555909 0.000576168 1e-12)
(0.000555909 0.000576168 2.3e-05)
(0.00055735 0.000575755 1e-12)
(0.00055735 0.000575755 2.3e-05)
(0.00055879 0.000575344 1e-12)
(0.00055879 0.000575344 2.3e-05)
(0.00056023 0.000574935 1e-12)
(0.00056023 0.000574935 2.3e-05)
(0.00056167 0.000574528 1e-12)
(0.00056167 0.000574528 2.3e-05)
(0.00056311 0.000574124 1e-12)
(0.00056311 0.000574124 2.3e-05)
(0.000564551 0.000573722 1e-12)
(0.000564551 0.000573722 2.3e-05)
(0.000565991 0.000573322 1e-12)
(0.000565991 0.000573322 2.3e-05)
(0.000567431 0.000572924 1e-12)
(0.000567431 0.000572924 2.3e-05)
(0.000568871 0.000572529 1e-12)
(0.000568871 0.000572529 2.3e-05)
(0.000570311 0.000572137 1e-12)
(0.000570311 0.000572137 2.3e-05)
(0.000571751 0.000571747 1e-12)
(0.000571751 0.000571747 2.3e-05)
(0.000573192 0.000571359 1e-12)
(0.000573192 0.000571359 2.3e-05)
(0.000574632 0.000570974 1e-12)
(0.000574632 0.000570974 2.3e-05)
(0.000576072 0.000570592 1e-12)
(0.000576072 0.000570592 2.3e-05)
(0.000577512 0.000570212 1e-12)
(0.000577512 0.000570212 2.3e-05)
(0.000578952 0.000569835 1e-12)
(0.000578952 0.000569835 2.3e-05)
(0.000580393 0.00056946 1e-12)
(0.000580393 0.00056946 2.3e-05)
(0.000581833 0.000569088 1e-12)
(0.000581833 0.000569088 2.3e-05)
(0.000583273 0.000568719 1e-12)
(0.000583273 0.000568719 2.3e-05)
(0.000584713 0.000568353 1e-12)
(0.000584713 0.000568353 2.3e-05)
(0.000586153 0.00056799 1e-12)
(0.000586153 0.00056799 2.3e-05)
(0.000587593 0.000567629 1e-12)
(0.000587593 0.000567629 2.3e-05)
(0.000589034 0.000567271 1e-12)
(0.000589034 0.000567271 2.3e-05)
(0.000590474 0.000566916 1e-12)
(0.000590474 0.000566916 2.3e-05)
(0.000591914 0.000566564 1e-12)
(0.000591914 0.000566564 2.3e-05)
(0.000593354 0.000566215 1e-12)
(0.000593354 0.000566215 2.3e-05)
(0.000594794 0.00056587 1e-12)
(0.000594794 0.00056587 2.3e-05)
(0.000596235 0.000565527 1e-12)
(0.000596235 0.000565527 2.3e-05)
(0.000597675 0.000565187 1e-12)
(0.000597675 0.000565187 2.3e-05)
(0.000599115 0.00056485 1e-12)
(0.000599115 0.00056485 2.3e-05)
(0.000600555 0.000564516 1e-12)
(0.000600555 0.000564516 2.3e-05)
(0.000601995 0.000564186 1e-12)
(0.000601995 0.000564186 2.3e-05)
(0.000603435 0.000563859 1e-12)
(0.000603435 0.000563859 2.3e-05)
(0.000604876 0.000563535 1e-12)
(0.000604876 0.000563535 2.3e-05)
(0.000606316 0.000563214 1e-12)
(0.000606316 0.000563214 2.3e-05)
(0.000607756 0.000562896 1e-12)
(0.000607756 0.000562896 2.3e-05)
(0.000609196 0.000562582 1e-12)
(0.000609196 0.000562582 2.3e-05)
(0.000610636 0.000562271 1e-12)
(0.000610636 0.000562271 2.3e-05)
(0.000612077 0.000561963 1e-12)
(0.000612077 0.000561963 2.3e-05)
(0.000613517 0.000561659 1e-12)
(0.000613517 0.000561659 2.3e-05)
(0.000614957 0.000561358 1e-12)
(0.000614957 0.000561358 2.3e-05)
(0.000616397 0.000561061 1e-12)
(0.000616397 0.000561061 2.3e-05)
(0.000617837 0.000560767 1e-12)
(0.000617837 0.000560767 2.3e-05)
(0.000619277 0.000560477 1e-12)
(0.000619277 0.000560477 2.3e-05)
(0.000620718 0.00056019 1e-12)
(0.000620718 0.00056019 2.3e-05)
(0.000622158 0.000559906 1e-12)
(0.000622158 0.000559906 2.3e-05)
(0.000623598 0.000559627 1e-12)
(0.000623598 0.000559627 2.3e-05)
(0.000625038 0.00055935 1e-12)
(0.000625038 0.00055935 2.3e-05)
(0.000626478 0.000559078 1e-12)
(0.000626478 0.000559078 2.3e-05)
(0.000627919 0.000558809 1e-12)
(0.000627919 0.000558809 2.3e-05)
(0.000629359 0.000558544 1e-12)
(0.000629359 0.000558544 2.3e-05)
(0.000630799 0.000558282 1e-12)
(0.000630799 0.000558282 2.3e-05)
(0.000632239 0.000558024 1e-12)
(0.000632239 0.000558024 2.3e-05)
(0.000633679 0.00055777 1e-12)
(0.000633679 0.00055777 2.3e-05)
(0.000635119 0.000557519 1e-12)
(0.000635119 0.000557519 2.3e-05)
(0.00063656 0.000557273 1e-12)
(0.00063656 0.000557273 2.3e-05)
(0.000638 0.00055703 1e-12)
(0.000638 0.00055703 2.3e-05)
(0.00063944 0.000556791 1e-12)
(0.00063944 0.000556791 2.3e-05)
(0.00064088 0.000556555 1e-12)